Version 4
SHEET 1 1848 748
WIRE 560 -352 432 -352
WIRE 752 -352 560 -352
WIRE 880 -352 832 -352
WIRE 960 -352 928 -352
WIRE 1024 -352 960 -352
WIRE 1152 -352 1104 -352
WIRE 1200 -352 1152 -352
WIRE 1248 -352 1200 -352
WIRE 1520 -352 1248 -352
WIRE 1520 -336 1520 -352
WIRE 880 -304 880 -352
WIRE 928 -304 928 -352
WIRE 432 -272 432 -352
WIRE 1248 -272 1248 -352
WIRE 1152 -256 1152 -352
WIRE 1008 -240 944 -240
WIRE 1520 -224 1520 -256
WIRE 1584 -224 1520 -224
WIRE 1008 -208 1008 -240
WIRE 1520 -176 1520 -224
WIRE 880 -160 880 -176
WIRE 960 -160 960 -352
WIRE 960 -160 880 -160
WIRE 1152 -160 1152 -192
WIRE 1200 -160 1152 -160
WIRE 1248 -160 1248 -192
WIRE 1248 -160 1200 -160
WIRE 1200 -144 1200 -160
WIRE 432 -128 432 -192
WIRE 928 -112 928 -176
WIRE 1008 -112 1008 -128
WIRE 928 -96 928 -112
WIRE 1520 -80 1520 -96
WIRE 704 272 672 272
WIRE 368 304 368 288
WIRE 944 304 864 304
WIRE 1088 304 1008 304
WIRE 368 320 368 304
WIRE 672 336 672 272
WIRE 672 352 672 336
WIRE 864 384 864 304
WIRE 1024 384 944 384
WIRE 1088 384 1088 304
WIRE 368 432 368 400
WIRE 1152 432 1136 432
WIRE 1280 432 1232 432
WIRE 672 448 672 432
WIRE 976 464 976 448
WIRE 976 496 976 464
WIRE 1088 512 1088 384
WIRE 1088 512 1008 512
WIRE 1136 512 1136 432
WIRE 1136 512 1088 512
WIRE 1184 512 1136 512
WIRE 1344 512 1344 432
WIRE 1344 512 1264 512
WIRE 1440 512 1344 512
WIRE 1472 512 1440 512
WIRE 1584 512 1584 -224
WIRE 1584 512 1552 512
WIRE 672 528 672 448
WIRE 864 528 864 384
WIRE 864 528 672 528
WIRE 944 528 864 528
WIRE 1440 528 1440 512
WIRE 1072 544 1008 544
WIRE 1072 592 1072 544
WIRE 1584 608 1584 576
WIRE 1440 624 1440 592
WIRE 976 640 976 560
WIRE 1072 704 1072 672
WIRE 1584 704 1584 688
FLAG 1200 -144 0
FLAG 432 -128 0
FLAG 1200 -352 out
FLAG 1008 -240 d
FLAG 560 -352 in
FLAG 976 640 0
FLAG 1072 704 0
FLAG 976 464 VPOS
FLAG 1008 -112 0
FLAG 704 272 ctrl
IOPIN 704 272 Out
FLAG 672 336 x
FLAG 672 448 y
FLAG 1520 -80 0
FLAG 368 432 0
FLAG 368 304 VPOS
FLAG 1440 704 0
FLAG 928 -112 0
FLAG 1584 704 0
DATAFLAG 1584 -112 ""
DATAFLAG 912 16 ""
SYMBOL cap 1136 -256 R0
WINDOW 0 -44 28 Left 2
WINDOW 3 -47 63 Left 2
SYMATTR InstName C1
SYMATTR Value 100µF
SYMBOL res 1232 -288 R0
SYMATTR InstName Rload
SYMATTR Value 6.6
SYMBOL ind 1008 -336 R270
WINDOW 0 32 56 VTop 2
WINDOW 3 5 56 VBottom 2
SYMATTR InstName L1
SYMATTR Value 300µ
SYMBOL res 848 -368 R90
WINDOW 0 0 56 VBottom 2
WINDOW 3 32 56 VTop 2
SYMATTR InstName RL
SYMATTR Value 22m
SYMBOL voltage 432 -288 R0
WINDOW 123 24 44 Left 2
WINDOW 39 0 0 Left 0
SYMATTR Value2 AC 0
SYMATTR InstName Vg
SYMATTR Value 12
SYMBOL ccm1 912 -240 M90
SYMATTR InstName U1
SYMATTR Value CCM2
SYMATTR SpiceLine Ron=8m
SYMATTR SpiceLine2 VD=0.5 RD=0.05
SYMBOL Opamps\\LT1215 976 464 M0
SYMATTR InstName U2
SYMBOL bv 1008 -224 R0
SYMATTR InstName B1
SYMATTR Value V=limit(v(ctrl), 0.01, 0.9)
SYMBOL voltage 672 336 R0
WINDOW 0 41 45 Left 2
WINDOW 123 37 65 Left 2
WINDOW 39 0 0 Left 2
SYMATTR InstName Vz1
SYMATTR Value2 AC 1
SYMATTR Value ""
SYMBOL res 1504 -352 R0
SYMATTR InstName R4
SYMATTR Value 2.8k
SYMBOL res 1504 -192 R0
SYMATTR InstName R5
SYMATTR Value 1k
SYMBOL voltage 368 304 R0
WINDOW 123 24 44 Left 2
WINDOW 39 0 0 Left 0
SYMATTR Value2 AC 1
SYMATTR InstName Vg1
SYMATTR Value 12
SYMBOL ind 1456 528 R270
WINDOW 0 32 56 VTop 2
WINDOW 3 5 56 VBottom 2
SYMATTR InstName L2
SYMATTR Value 1Meg
SYMBOL cap 1424 528 R0
SYMATTR InstName C3
SYMATTR Value 1
SYMBOL voltage 1440 608 R0
WINDOW 123 24 124 Left 2
WINDOW 39 0 0 Left 0
SYMATTR Value2 AC 1
SYMATTR InstName V1
SYMATTR Value ""
SYMBOL voltage 1072 576 R0
WINDOW 123 0 0 Left 0
WINDOW 39 0 0 Left 0
SYMATTR InstName V2
SYMATTR Value 2.5
SYMBOL res 1568 592 R0
SYMATTR InstName R1
SYMATTR Value 750
SYMBOL cap 1568 512 R0
SYMATTR InstName C2
SYMATTR Value 1
SYMBOL res 1280 496 R90
WINDOW 0 0 56 VBottom 2
WINDOW 3 32 56 VTop 2
SYMATTR InstName R2
SYMATTR Value 1k
SYMBOL cap 1088 368 R90
WINDOW 0 0 32 VBottom 2
WINDOW 3 32 32 VTop 2
SYMATTR InstName C4
SYMATTR Value 100n
SYMBOL res 960 368 R90
WINDOW 0 0 56 VBottom 2
WINDOW 3 32 56 VTop 2
SYMATTR InstName R3
SYMATTR Value 100
SYMBOL res 1248 416 R90
WINDOW 0 0 56 VBottom 2
WINDOW 3 32 56 VTop 2
SYMATTR InstName R6
SYMATTR Value 100k
SYMBOL cap 1344 416 R90
WINDOW 0 0 32 VBottom 2
WINDOW 3 32 32 VTop 2
SYMATTR InstName C5
SYMATTR Value 2.2µ
SYMBOL cap 1008 288 R90
WINDOW 0 0 32 VBottom 2
WINDOW 3 32 32 VTop 2
SYMATTR InstName C6
SYMATTR Value 200n
TEXT 976 -80 Left 2 ;Simulation directives
TEXT 976 -40 Left 2 !.lib average.lib
TEXT 576 -280 Left 2 ;Boost converter\naverage model
TEXT 1112 120 Left 2 !.ac dec 300 1 100Meg
TEXT 1112 72 Left 2 ;.step param RLOAD list 8 20
TEXT 1112 48 Left 2 !;dc Vduty 0.2 0.9 0.01
TEXT 1096 176 Left 2 ;.tran 0 12m 7m 1u
