Version 4
SHEET 1 880 680
WIRE -176 -80 -608 -80
WIRE -128 -80 -176 -80
WIRE 80 -48 80 -80
WIRE 176 -48 176 -64
WIRE 176 -48 80 -48
WIRE -608 0 -608 -80
WIRE -128 16 -128 -80
WIRE 80 32 80 -48
WIRE -80 48 -336 48
WIRE -320 80 -368 80
WIRE -176 80 -176 -80
WIRE -176 80 -192 80
WIRE -336 112 -336 48
WIRE -320 112 -336 112
WIRE -128 112 -128 80
WIRE -128 112 -192 112
WIRE -80 112 -80 48
WIRE 32 112 0 112
WIRE -608 128 -608 80
WIRE -320 144 -384 144
WIRE -176 144 -192 144
WIRE -128 144 -128 112
WIRE 80 160 80 128
WIRE 80 160 -16 160
WIRE 224 160 80 160
WIRE 384 160 304 160
WIRE 464 160 384 160
WIRE 592 160 464 160
WIRE -320 176 -352 176
WIRE 80 192 80 160
WIRE 384 192 384 160
WIRE 464 192 464 160
WIRE 592 192 592 160
WIRE -176 208 -176 144
WIRE -128 208 -176 208
WIRE -16 208 -16 160
WIRE -16 208 -128 208
WIRE -384 256 -384 144
WIRE -368 272 -368 80
WIRE -96 272 -368 272
WIRE 32 272 -16 272
WIRE -352 288 -352 176
WIRE 384 304 384 256
WIRE 80 320 80 288
WIRE 464 320 464 256
WIRE 592 320 592 272
WIRE -352 400 -352 368
WIRE -192 416 -192 176
WIRE -160 416 -192 416
FLAG 80 320 0
FLAG 464 320 0
FLAG 592 320 0
FLAG -608 128 0
FLAG -384 256 0
FLAG -352 400 0
FLAG 80 -160 0
FLAG 176 -128 0
FLAG -160 496 0
FLAG 384 304 0
SYMBOL nmos 32 32 R0
SYMATTR InstName M1
SYMATTR Value IRFZ44N
SYMBOL ind 208 176 R270
WINDOW 0 32 56 VTop 2
WINDOW 3 5 56 VBottom 2
SYMATTR InstName L1
SYMATTR Value 300µ
SYMBOL nmos 32 192 R0
SYMATTR InstName M2
SYMATTR Value IRFZ44N
SYMBOL cap 448 192 R0
SYMATTR InstName C2
SYMATTR Value 10µ
SYMBOL res 576 176 R0
SYMATTR InstName R1
SYMATTR Value 6
SYMBOL voltage -608 -16 R0
WINDOW 123 0 0 Left 0
WINDOW 39 0 0 Left 0
SYMATTR InstName V1
SYMATTR Value 12
SYMBOL IR2104 -256 128 R0
SYMATTR InstName U1
SYMBOL diode -144 16 R0
SYMATTR InstName D1
SYMATTR Value 1N4148
SYMBOL cap -144 144 R0
SYMATTR InstName C3
SYMATTR Value 20n
SYMBOL res 16 96 R90
WINDOW 0 0 56 VBottom 2
WINDOW 3 32 56 VTop 2
SYMATTR InstName R2
SYMATTR Value 30
SYMBOL res 0 256 R90
WINDOW 0 0 56 VBottom 2
WINDOW 3 32 56 VTop 2
SYMATTR InstName R3
SYMATTR Value 30
SYMBOL voltage -352 272 R0
WINDOW 123 0 0 Left 0
WINDOW 39 0 0 Left 0
SYMATTR InstName V2
SYMATTR Value PULSE(0 12 0.1p 0.1p 0.1p 3.65u 8.33u 10000)
SYMBOL voltage 80 -64 R180
WINDOW 0 24 96 Left 2
WINDOW 3 24 16 Left 2
SYMATTR InstName V3
SYMATTR Value 24
SYMBOL cap 160 -128 R0
SYMATTR InstName C1
SYMATTR Value 470µ
SYMBOL voltage -160 400 R0
SYMATTR InstName V4
SYMATTR Value 5
SYMBOL cap 368 192 R0
SYMATTR InstName C4
SYMATTR Value 1n
TEXT -640 424 Left 2 !.tran 0 5m 0 10n
