Version 4
SHEET 1 2316 896
WIRE 96 -32 -240 -32
WIRE 320 -32 96 -32
WIRE 640 -32 320 -32
WIRE 784 -32 736 -32
WIRE 896 -32 784 -32
WIRE 1024 -32 896 -32
WIRE 1136 -32 1104 -32
WIRE 1232 -32 1136 -32
WIRE 1360 -32 1232 -32
WIRE 1520 -32 1360 -32
WIRE 896 16 896 -32
WIRE 208 96 160 96
WIRE 256 96 208 96
WIRE 688 128 688 32
WIRE 784 128 784 -32
WIRE 896 128 896 96
WIRE 1056 128 896 128
WIRE 1232 128 1232 -32
WIRE 896 160 896 128
WIRE 1056 160 1056 128
WIRE -240 176 -240 -32
WIRE 96 176 96 144
WIRE 208 176 208 96
WIRE 208 176 96 176
WIRE 320 208 320 144
WIRE 736 208 736 192
WIRE 736 208 320 208
WIRE 1136 224 1136 -32
WIRE 1136 224 1104 224
WIRE 96 256 96 176
WIRE 320 256 320 208
WIRE 896 256 896 240
WIRE 1008 256 1008 224
WIRE 1008 256 896 256
WIRE 1360 256 1360 -32
WIRE 1520 256 1520 -32
WIRE 896 272 896 256
WIRE 32 304 -32 304
WIRE 1136 304 384 304
WIRE 1232 304 1232 208
WIRE 1232 304 1136 304
WIRE 1232 336 1232 304
WIRE -32 352 -32 304
WIRE 96 384 96 352
WIRE 208 384 96 384
WIRE 320 384 320 352
WIRE 320 384 208 384
WIRE 208 416 208 384
WIRE -240 528 -240 256
WIRE -32 528 -32 432
WIRE -32 528 -240 528
WIRE 208 528 208 496
WIRE 208 528 -32 528
WIRE 1232 528 1232 416
WIRE 1232 528 208 528
WIRE 1360 528 1360 336
WIRE 1360 528 1232 528
WIRE 1520 528 1520 320
WIRE 1520 528 1360 528
FLAG 208 528 0
FLAG 1360 -32 Vo
FLAG -32 304 Vref
FLAG -240 -32 VIN
FLAG 1136 304 Vf
FLAG 896 272 0
DATAFLAG 1200 -32 ""
DATAFLAG 624 304 ""
SYMBOL pnp 160 144 R180
SYMATTR InstName Q1
SYMATTR Value 2N3906
SYMBOL pnp 256 144 M180
SYMATTR InstName Q2
SYMATTR Value 2N3906
SYMBOL npn 32 256 R0
SYMATTR InstName Q3
SYMATTR Value 2N3904
SYMBOL npn 384 256 M0
SYMATTR InstName Q4
SYMATTR Value 2N3904
SYMBOL res 192 400 R0
SYMATTR InstName R1
SYMATTR Value 2647
SYMBOL pnp 736 32 M270
SYMATTR InstName Q5
SYMATTR Value MI_TRANSISTOR2
SYMBOL npn 688 192 R270
SYMATTR InstName Q6
SYMATTR Value MI_TRANSISTOR
SYMBOL res 1216 112 R0
SYMATTR InstName R5
SYMATTR Value 2.5k
SYMBOL res 1216 320 R0
SYMATTR InstName R6
SYMATTR Value 2.5k
SYMBOL res 1344 240 R0
SYMATTR InstName RL
SYMATTR Value {RL}
SYMBOL voltage -32 336 R0
WINDOW 123 24 124 Left 2
WINDOW 39 0 0 Left 0
WINDOW 3 24 44 Left 2
SYMATTR InstName V1
SYMATTR Value 2.5
SYMBOL voltage -240 160 R0
WINDOW 123 24 124 Left 2
WINDOW 39 0 0 Left 0
WINDOW 3 24 44 Left 2
SYMATTR InstName VIN
SYMATTR Value 9.8
SYMBOL cap 1504 256 R0
SYMATTR InstName C3
SYMATTR Value 1µ
SYMBOL res 80 -48 R0
SYMATTR InstName R2
SYMATTR Value 10k
SYMBOL res 304 -48 R0
SYMATTR InstName R3
SYMATTR Value 10k
SYMBOL res 880 0 R0
SYMATTR InstName R4
SYMATTR Value 1.6k
SYMBOL res 880 144 R0
SYMATTR InstName R7
SYMATTR Value 1k
SYMBOL res 1120 -48 R90
WINDOW 0 0 56 VBottom 2
WINDOW 3 32 56 VTop 2
SYMATTR InstName R8
SYMATTR Value 2.8
SYMBOL npn 1008 160 M90
SYMATTR InstName Q7
SYMATTR Value 2N3904
TEXT -240 560 Left 2 !.op
TEXT -248 624 Left 2 !.param VINDC 12
TEXT -248 664 Left 2 !.param VINAC 1
TEXT -248 712 Left 2 !;dc VIN 4 24
TEXT 416 664 Left 2 !.step param RL 1k 5 10
TEXT 1648 -24 Left 2 ;Mido regulacion de linea
TEXT 1648 16 Left 2 !.meas DC Vo1rl FIND V(Vo) AT=12
TEXT 1648 40 Left 2 !.meas DC Vo2rl FIND V(Vo) AT=24
TEXT 1648 64 Left 2 !.meas DC RegLin PARAM ((Vo2rl-Vo1rl)/12)
TEXT 1648 120 Left 2 ;Mido regulacion de carga
TEXT 1648 160 Left 2 !.meas OP Vo1rc FIND V(Vo) AT 100
TEXT 1648 184 Left 2 !.meas OP Vo2rc FIND V(Vo) AT 5
TEXT 1648 208 Left 2 !.meas OP Io1rc FIND I(RL) AT 100
TEXT 1648 232 Left 2 !.meas OP Io2rc FIND I(RL) AT 5
TEXT 1656 296 Left 2 ;Mido eficiencia
TEXT 1656 336 Left 2 ;-100*((V(vo)*I(RL))/(V(VIN)*I(VIN)))
TEXT 1648 256 Left 2 !.meas OP RegCar PARAM (-(Vo2rc-Vo1rc)/(Io2rc-Io1rc))
TEXT 1160 -264 Left 2 !.MODEL MI_TRANSISTOR NPN ( BF=50)
TEXT 1168 -320 Left 2 !.MODEL MI_TRANSISTOR2 PNP ( BF=50)
