Version 4.1
SHEET 1 2200 680
WIRE -32 -944 -128 -944
WIRE 112 -944 32 -944
WIRE 656 -912 640 -912
WIRE -224 -816 -256 -816
WIRE 640 -816 640 -912
WIRE 640 -816 608 -816
WIRE 672 -816 640 -816
WIRE 736 -800 736 -912
WIRE 880 -800 736 -800
WIRE 672 -784 576 -784
WIRE -352 -768 -352 -816
WIRE -384 -752 -528 -752
WIRE -48 -752 -48 -784
WIRE -256 -736 -256 -816
WIRE -256 -736 -320 -736
WIRE -224 -736 -256 -736
WIRE -128 -736 -128 -944
WIRE -128 -736 -144 -736
WIRE -80 -736 -128 -736
WIRE 576 -736 576 -784
WIRE -384 -720 -448 -720
WIRE 112 -720 112 -944
WIRE 112 -720 -16 -720
WIRE 160 -720 112 -720
WIRE -80 -704 -128 -704
WIRE -352 -672 -352 -704
WIRE 880 -672 880 -720
WIRE -48 -640 -48 -688
WIRE -448 -592 -448 -720
WIRE -384 -592 -448 -592
WIRE -256 -592 -256 -736
WIRE -256 -592 -304 -592
WIRE 784 -528 608 -528
WIRE 816 -528 784 -528
WIRE 1120 -528 912 -528
WIRE 1248 -528 1120 -528
WIRE 1440 -528 1328 -528
WIRE 1584 -528 1440 -528
WIRE 224 -512 224 -576
WIRE -448 -496 -448 -592
WIRE -384 -496 -448 -496
WIRE 112 -496 112 -720
WIRE 112 -496 -304 -496
WIRE 192 -496 112 -496
WIRE 384 -480 256 -480
WIRE 896 -480 832 -480
WIRE 1120 -480 1120 -528
WIRE 192 -464 64 -464
WIRE 608 -464 608 -528
WIRE 1072 -464 992 -464
WIRE 832 -448 832 -480
WIRE 1584 -432 1584 -528
WIRE 992 -416 992 -464
WIRE 1440 -416 1440 -528
WIRE 64 -400 64 -464
WIRE 96 -400 64 -400
WIRE 1072 -400 1072 -464
WIRE -528 -384 -528 -752
WIRE -128 -384 -128 -704
WIRE -128 -384 -528 -384
WIRE 832 -384 832 -448
WIRE 1120 -384 1120 -400
WIRE 64 -336 64 -400
WIRE 224 -336 224 -448
WIRE -752 -288 -752 -336
WIRE -624 -288 -752 -288
WIRE -624 -272 -624 -288
WIRE 608 -256 608 -384
WIRE 832 -256 832 -304
WIRE 832 -256 608 -256
WIRE 992 -256 992 -336
WIRE 992 -256 832 -256
WIRE 1120 -256 1120 -384
WIRE 1120 -256 992 -256
WIRE 1440 -256 1440 -352
WIRE 1440 -256 1120 -256
WIRE 1584 -256 1584 -352
WIRE 1584 -256 1440 -256
WIRE -752 -224 -752 -288
WIRE -448 -224 -448 -272
WIRE -528 -208 -528 -384
WIRE -480 -208 -528 -208
WIRE 64 -208 64 -256
WIRE -128 -192 -128 -384
WIRE -128 -192 -416 -192
WIRE -624 -176 -624 -192
WIRE -480 -176 -624 -176
WIRE -624 -160 -624 -176
WIRE -448 -112 -448 -160
WIRE -752 -16 -752 -144
WIRE -624 -16 -624 -80
FLAG -624 -16 0
FLAG -752 -16 0
FLAG -48 -640 0
FLAG -448 -112 0
FLAG 224 -336 0
FLAG -352 -672 0
FLAG -752 -336 VCC
IOPIN -752 -336 BiDir
FLAG -352 -816 VCC
IOPIN -352 -816 BiDir
FLAG -48 -784 VCC
IOPIN -48 -784 BiDir
FLAG -448 -272 VCC
IOPIN -448 -272 BiDir
FLAG -224 -816 Va
IOPIN -224 -816 Out
FLAG 160 -720 Vb
IOPIN 160 -720 Out
FLAG 64 -208 0
FLAG 224 -576 VCC
IOPIN 224 -576 BiDir
FLAG 96 -400 Vr
IOPIN 96 -400 Out
FLAG 880 -672 0
FLAG 528 -816 0
FLAG 576 -736 0
FLAG 384 -400 0
FLAG 1440 -256 0
FLAG 1440 -528 Vo
FLAG 832 -448 Vg
FLAG 784 -528 d
DATAFLAG 224 -624 ""
DATAFLAG 160 -496 ""
DATAFLAG 1008 -464 ""
DATAFLAG 720 -528 ""
DATAFLAG 832 -416 ""
SYMBOL res -128 -752 R90
WINDOW 0 0 56 VBottom 2
WINDOW 3 32 56 VTop 2
SYMATTR InstName R5
SYMATTR Value 100k
SYMBOL res -640 -288 R0
SYMATTR InstName R1
SYMATTR Value 100k
SYMBOL res -640 -176 R0
SYMATTR InstName R2
SYMATTR Value 100k
SYMBOL voltage -752 -240 R0
WINDOW 123 0 0 Left 0
WINDOW 39 0 0 Left 0
SYMATTR InstName V1
SYMATTR Value 30
SYMBOL res -288 -608 R90
WINDOW 0 0 56 VBottom 2
WINDOW 3 32 56 VTop 2
SYMATTR InstName R3
SYMATTR Value 50k
SYMBOL res -288 -512 R90
WINDOW 0 0 56 VBottom 2
WINDOW 3 32 56 VTop 2
SYMATTR InstName R4
SYMATTR Value 47k
SYMBOL cap 32 -960 R90
WINDOW 0 0 32 VBottom 2
WINDOW 3 32 32 VTop 2
SYMATTR InstName C1
SYMATTR Value 10n
SYMBOL OpAmps\\LTC1052 -352 -800 R0
SYMATTR InstName U1
SYMBOL OpAmps\\LTC1052 -48 -784 R0
SYMATTR InstName U2
SYMBOL OpAmps\\LTC1052 -448 -256 R0
SYMATTR InstName U4
SYMBOL voltage 64 -352 R0
WINDOW 123 0 0 Left 0
WINDOW 39 0 0 Left 0
SYMATTR InstName V2
SYMATTR Value 9.5
SYMBOL OpAmps\\LTC1052 224 -544 R0
SYMATTR InstName U6
SYMBOL OpAmps\\LTC1052 704 -864 R0
SYMATTR InstName U3
SYMBOL res 752 -928 R90
WINDOW 0 0 56 VBottom 2
WINDOW 3 32 56 VTop 2
SYMATTR InstName R7
SYMATTR Value 90
SYMBOL res 624 -832 R90
WINDOW 0 0 56 VBottom 2
WINDOW 3 32 56 VTop 2
SYMATTR InstName R8
SYMATTR Value 10
SYMBOL res 864 -816 R0
SYMATTR InstName R9
SYMATTR Value 220
SYMBOL res 368 -496 R0
SYMATTR InstName R6
SYMATTR Value 100k
SYMBOL voltage 608 -480 R0
WINDOW 123 0 0 Left 0
WINDOW 39 0 0 Left 0
SYMATTR InstName V3
SYMATTR Value 12
SYMBOL res 1568 -448 R0
SYMATTR InstName R10
SYMATTR Value 15
SYMBOL voltage 832 -400 R0
WINDOW 123 0 0 Left 0
WINDOW 39 0 0 Left 0
SYMATTR InstName V4
SYMATTR Value PULSE(0 20 0 0 0 6.59u 8.33u 10000)
SYMBOL voltage 992 -432 R0
WINDOW 123 0 0 Left 0
WINDOW 39 0 0 Left 0
SYMATTR InstName V5
SYMATTR Value PULSE(0 20 6.59u 0 0 1.73u 8.33u 10000)
SYMBOL cap 1424 -416 R0
SYMATTR InstName C2
SYMATTR Value 100µ
SYMBOL ind 1232 -512 R270
WINDOW 0 32 56 VTop 2
WINDOW 3 5 56 VBottom 2
SYMATTR InstName L1
SYMATTR Value 800µ
SYMBOL nmos 1072 -480 R0
SYMATTR InstName M1
SYMATTR Value IRFZ44N
SYMBOL nmos 816 -480 R270
SYMATTR InstName M2
SYMATTR Value IRFZ44N
TEXT -816 8 Left 2 !.tran 50m
TEXT 768 -168 Left 2 !.tran 0 50m 0
